Circuit: * Z:\media\hd\ARQUIVOS-HD\MEGA\GOOGLE DRIVE\HACKERMAN\GITHUB\basic-ups\HARDWARE\EDA\LTspice\basic-ups.asc

Fatal Error: No analysis request found.
